data_image0
_cell_length_a       5.4993115
_cell_length_b       5.4263043
_cell_length_c       19.496879
_cell_angle_alpha    90.0
_cell_angle_beta     90.0
_cell_angle_gamma    90.0

_symmetry_space_group_name_H-M    C m c m
_symmetry_int_tables_number       63

loop_
  _symmetry_equiv_pos_as_xyz
  'x, y, z'

loop_
  _atom_site_label
  _atom_site_occupancy
  _atom_site_fract_x
  _atom_site_fract_y
  _atom_site_fract_z
  _atom_site_thermal_displace_type
  _atom_site_B_iso_or_equiv
  _atom_site_type_symbol
  O1       1.0000 0.186424  0.250000  0.000000  Biso   1.000  O
  O2       1.0000 0.813576  0.750000  0.000000  Biso   1.000  O
  O3       1.0000 0.686424  0.250000  0.500000  Biso   1.000  O
  O4       1.0000 0.313576  0.750000  0.500000  Biso   1.000  O
  O5       1.0000 0.305341  0.250000  0.802612  Biso   1.000  O
  O6       1.0000 0.694659  0.750000  0.802612  Biso   1.000  O
  O7       1.0000 0.305341  0.250000  0.197388  Biso   1.000  O
  O8       1.0000 0.694659  0.750000  0.197388  Biso   1.000  O
  O9       1.0000 0.805341  0.250000  0.302612  Biso   1.000  O
  O10      1.0000 0.194659  0.750000  0.302612  Biso   1.000  O
  O11      1.0000 0.805341  0.250000  0.697388  Biso   1.000  O
  O12      1.0000 0.194659  0.750000  0.697388  Biso   1.000  O
  O13      1.0000 0.000000  0.000000  0.413882  Biso   1.000  O
  O14      1.0000 0.000000  0.500000  0.586118  Biso   1.000  O
  O15      1.0000 0.000000  0.000000  0.586118  Biso   1.000  O
  O16      1.0000 0.000000  0.500000  0.413882  Biso   1.000  O
  O17      1.0000 0.500000  0.000000  0.913882  Biso   1.000  O
  O18      1.0000 0.500000  0.500000  0.086118  Biso   1.000  O
  O19      1.0000 0.500000  0.000000  0.086118  Biso   1.000  O
  O20      1.0000 0.500000  0.500000  0.913882  Biso   1.000  O
  O21      1.0000 0.000000  0.000000  0.109993  Biso   1.000  O
  O22      1.0000 0.000000  0.500000  0.890007  Biso   1.000  O
  O23      1.0000 0.000000  0.000000  0.890007  Biso   1.000  O
  O24      1.0000 0.000000  0.500000  0.109993  Biso   1.000  O
  O25      1.0000 0.500000  0.000000  0.609993  Biso   1.000  O
  O26      1.0000 0.500000  0.500000  0.390007  Biso   1.000  O
  O27      1.0000 0.500000  0.000000  0.390007  Biso   1.000  O
  O28      1.0000 0.500000  0.500000  0.609993  Biso   1.000  O
  Ca1      1.0000 0.746215  0.250000  0.000000  Biso   1.000  Ca
  Ca2      1.0000 0.253785  0.750000  0.000000  Biso   1.000  Ca
  Ca3      1.0000 0.246215  0.250000  0.500000  Biso   1.000  Ca
  Ca4      1.0000 0.753785  0.750000  0.500000  Biso   1.000  Ca
  Ca5      1.0000 0.236620  0.250000  0.685505  Biso   1.000  Ca
  Ca6      1.0000 0.763380  0.750000  0.685505  Biso   1.000  Ca
  Ca7      1.0000 0.236620  0.250000  0.314495  Biso   1.000  Ca
  Ca8      1.0000 0.763380  0.750000  0.314495  Biso   1.000  Ca
  Ca9      1.0000 0.736620  0.250000  0.185505  Biso   1.000  Ca
  Ca10     1.0000 0.263380  0.750000  0.185505  Biso   1.000  Ca
  Ca11     1.0000 0.736620  0.250000  0.814495  Biso   1.000  Ca
  Ca12     1.0000 0.263380  0.750000  0.814495  Biso   1.000  Ca
  Ti1      1.0000 0.247784  0.250000  0.900520  Biso   1.000  Ti
  Ti2      1.0000 0.752216  0.750000  0.900520  Biso   1.000  Ti
  Ti3      1.0000 0.247784  0.250000  0.099480  Biso   1.000  Ti
  Ti4      1.0000 0.752216  0.750000  0.099480  Biso   1.000  Ti
  Ti5      1.0000 0.747784  0.250000  0.400520  Biso   1.000  Ti
  Ti6      1.0000 0.252216  0.750000  0.400520  Biso   1.000  Ti
  Ti7      1.0000 0.747784  0.250000  0.599480  Biso   1.000  Ti
  Ti8      1.0000 0.252216  0.750000  0.599480  Biso   1.000  Ti
